Version 4
SHEET 1 880 680
WIRE -16 128 -48 128
WIRE 96 128 64 128
WIRE 128 128 96 128
WIRE 240 128 192 128
WIRE 400 128 320 128
WIRE 432 128 400 128
WIRE -16 176 -16 128
WIRE -48 256 -48 208
WIRE -16 256 -16 208
WIRE -16 256 -48 256
WIRE 208 256 -16 256
WIRE 416 256 416 240
WIRE 416 256 208 256
WIRE 208 288 208 256
FLAG 208 288 0
FLAG 96 128 in
FLAG 400 128 out
SYMBOL cap 192 112 R90
WINDOW 0 0 32 VBottom 2
WINDOW 3 32 32 VTop 2
SYMATTR InstName C1
SYMATTR Value 1p
SYMBOL res 80 112 R90
WINDOW 0 0 56 VBottom 2
WINDOW 3 32 56 VTop 2
SYMATTR InstName R1
SYMATTR Value 50
SYMBOL res 336 112 R90
WINDOW 0 0 56 VBottom 2
WINDOW 3 32 56 VTop 2
SYMATTR InstName R2
SYMATTR Value 50
SYMBOL MiniSyms4\\voltage- -16 192 R0
WINDOW 123 0 0 Left 0
WINDOW 39 0 0 Left 0
SYMATTR InstName V1
SYMATTR Value PULSE(0 5 0 13e-9 13e-9 2.5e-07 5e-07)
SYMBOL MiniSyms4\\voltage- -48 192 R0
WINDOW 123 11 39 Left 0
WINDOW 39 0 0 Left 0
SYMATTR Value2 AC 1
SYMATTR InstName V2
SYMATTR Value ""
SYMBOL res 400 144 R0
SYMATTR InstName R3
SYMATTR Value 1Meg
TEXT -8 328 Left 2 !.tran 0 5000e-9 0 1e-8 \n;.ac dec 10 0.1 25000e6
